
<edges>
    <edge id="e1" from="n1" to="n2" width="10.2" speed="60" shape="159.15,0.00 159.15,0.67 159.15,1.33 159.14,2.00 159.13,2.67 159.12,3.33 159.10,4.00 159.09,4.67 159.07,5.33 159.04,6.00 159.02,6.66 158.99,7.33 158.95,8.00 158.92,8.66 158.88,9.33 158.84,9.99 158.80,10.66 158.75,11.32 158.70,11.99 158.65,12.65 158.60,13.32 158.54,13.98 158.48,14.65 158.42,15.31 158.35,15.97 158.28,16.64 158.21,17.30 158.14,17.96 158.06,18.62 157.98,19.29 157.90,19.95 157.82,20.61 157.73,21.27 157.64,21.93 157.54,22.59 157.45,23.25 157.35,23.91 157.25,24.57 157.14,25.23 157.04,25.88 156.93,26.54 156.81,27.20 156.70,27.86 156.58,28.51 156.46,29.17 156.34,29.82 156.21,30.48 156.08,31.13 155.95,31.78 155.81,32.44 155.68,33.09 155.54,33.74 155.39,34.39 155.25,35.04 155.10,35.69 154.95,36.34 154.80,36.99 154.64,37.64 154.48,38.29 154.32,38.93 154.15,39.58 153.99,40.23 153.82,40.87 153.65,41.51 153.47,42.16 153.29,42.80 153.11,43.44 152.93,44.08 152.74,44.72 152.55,45.36 152.36,46.00 152.17,46.64 151.97,47.28 151.77,47.91 151.57,48.55 151.37,49.18 151.16,49.82 150.95,50.45 150.74,51.08 150.52,51.71 150.30,52.34 150.08,52.97 149.86,53.60 149.63,54.23 149.40,54.85 149.17,55.48 148.94,56.10 148.70,56.72 148.46,57.35 148.22,57.97 147.98,58.59 147.73,59.21 147.48,59.83 147.23,60.44 146.98,61.06 146.72,61.68 146.46,62.29 146.20,62.90 145.93,63.51 145.67,64.12 145.40,64.73 145.12,65.34 144.85,65.95 144.57,66.56 144.29,67.16 144.01,67.76 143.72,68.37 143.43,68.97 143.14,69.57 142.85,70.17 142.56,70.77 142.26,71.36 141.96,71.96 141.66,72.55 141.35,73.14 141.04,73.74 140.73,74.33 140.42,74.91 140.11,75.50 139.79,76.09 139.47,76.67 139.15,77.26 138.82,77.84 138.49,78.42 138.16,79.00 137.83,79.58 137.50,80.15 137.16,80.73 136.82,81.30 136.48,81.88 136.14,82.45 135.79,83.02 135.44,83.58 135.09,84.15 134.74,84.72 134.38,85.28 134.02,85.84 133.66,86.40 133.30,86.96 132.93,87.52 132.56,88.08 132.19,88.63 131.82,89.18 131.45,89.73 131.07,90.28 130.69,90.83 130.31,91.38 129.92,91.92 129.54,92.47 129.15,93.01 128.76,93.55 128.37,94.09 127.97,94.62 127.57,95.16 127.17,95.69 126.77,96.22 126.37,96.76 125.96,97.28 125.55,97.81 125.14,98.34 124.73,98.86 124.31,99.38 123.90,99.90 123.48,100.42 123.05,100.93 122.63,101.45 122.20,101.96 121.78,102.47 121.35,102.98 120.91,103.49 120.48,104.00 120.04,104.50 119.60,105.00 119.16,105.50 118.72,106.00 118.28,106.50 117.83,106.99 117.38,107.48 116.93,107.97 116.47,108.46 116.02,108.95 115.56,109.43 115.10,109.92 114.64,110.40 114.18,110.88 113.71,111.35 113.24,111.83 112.77,112.30 112.30,112.77 111.83,113.24 111.35,113.71 110.88,114.18 110.40,114.64 109.92,115.10 109.43,115.56 108.95,116.02 108.46,116.47 107.97,116.93 107.48,117.38 106.99,117.83 106.50,118.28 106.00,118.72 105.50,119.16 105.00,119.60 104.50,120.04 104.00,120.48 103.49,120.91 102.98,121.35 102.47,121.78 101.96,122.20 101.45,122.63 100.93,123.05 100.42,123.48 99.90,123.90 99.38,124.31 98.86,124.73 98.34,125.14 97.81,125.55 97.28,125.96 96.76,126.37 96.22,126.77 95.69,127.17 95.16,127.57 94.62,127.97 94.09,128.37 93.55,128.76 93.01,129.15 92.47,129.54 91.92,129.92 91.38,130.31 90.83,130.69 90.28,131.07 89.73,131.45 89.18,131.82 88.63,132.19 88.08,132.56 87.52,132.93 86.96,133.30 86.40,133.66 85.84,134.02 85.28,134.38 84.72,134.74 84.15,135.09 83.58,135.44 83.02,135.79 82.45,136.14 81.88,136.48 81.30,136.82 80.73,137.16 80.15,137.50 79.58,137.83 79.00,138.16 78.42,138.49 77.84,138.82 77.26,139.15 76.67,139.47 76.09,139.79 75.50,140.11 74.91,140.42 74.33,140.73 73.74,141.04 73.14,141.35 72.55,141.66 71.96,141.96 71.36,142.26 70.77,142.56 70.17,142.85 69.57,143.14 68.97,143.43 68.37,143.72 67.76,144.01 67.16,144.29 66.56,144.57 65.95,144.85 65.34,145.12 64.73,145.40 64.12,145.67 63.51,145.93 62.90,146.20 62.29,146.46 61.68,146.72 61.06,146.98 60.44,147.23 59.83,147.48 59.21,147.73 58.59,147.98 57.97,148.22 57.35,148.46 56.72,148.70 56.10,148.94 55.48,149.17 54.85,149.40 54.23,149.63 53.60,149.86 52.97,150.08 52.34,150.30 51.71,150.52 51.08,150.74 50.45,150.95 49.82,151.16 49.18,151.37 48.55,151.57 47.91,151.77 47.28,151.97 46.64,152.17 46.00,152.36 45.36,152.55 44.72,152.74 44.08,152.93 43.44,153.11 42.80,153.29 42.16,153.47 41.51,153.65 40.87,153.82 40.23,153.99 39.58,154.15 38.93,154.32 38.29,154.48 37.64,154.64 36.99,154.80 36.34,154.95 35.69,155.10 35.04,155.25 34.39,155.39 33.74,155.54 33.09,155.68 32.44,155.81 31.78,155.95 31.13,156.08 30.48,156.21 29.82,156.34 29.17,156.46 28.51,156.58 27.86,156.70 27.20,156.81 26.54,156.93 25.88,157.04 25.23,157.14 24.57,157.25 23.91,157.35 23.25,157.45 22.59,157.54 21.93,157.64 21.27,157.73 20.61,157.82 19.95,157.90 19.29,157.98 18.62,158.06 17.96,158.14 17.30,158.21 16.64,158.28 15.97,158.35 15.31,158.42 14.65,158.48 13.98,158.54 13.32,158.60 12.65,158.65 11.99,158.70 11.32,158.75 10.66,158.80 9.99,158.84 9.33,158.88 8.66,158.92 8.00,158.95 7.33,158.99 6.66,159.02 6.00,159.04 5.33,159.07 4.67,159.09 4.00,159.10 3.33,159.12 2.67,159.13 2.00,159.14 1.33,159.15 0.67,159.15 0.00,159.15 -0.67,159.15 -1.33,159.15 -2.00,159.14 -2.67,159.13 -3.33,159.12 -4.00,159.10 -4.67,159.09 -5.33,159.07 -6.00,159.04 -6.66,159.02 -7.33,158.99 -8.00,158.95 -8.66,158.92 -9.33,158.88 -9.99,158.84 -10.66,158.80 -11.32,158.75 -11.99,158.70 -12.65,158.65 -13.32,158.60 -13.98,158.54 -14.65,158.48 -15.31,158.42 -15.97,158.35 -16.64,158.28 -17.30,158.21 -17.96,158.14 -18.62,158.06 -19.29,157.98 -19.95,157.90 -20.61,157.82 -21.27,157.73 -21.93,157.64 -22.59,157.54 -23.25,157.45 -23.91,157.35 -24.57,157.25 -25.23,157.14 -25.88,157.04 -26.54,156.93 -27.20,156.81 -27.86,156.70 -28.51,156.58 -29.17,156.46 -29.82,156.34 -30.48,156.21 -31.13,156.08 -31.78,155.95 -32.44,155.81 -33.09,155.68 -33.74,155.54 -34.39,155.39 -35.04,155.25 -35.69,155.10 -36.34,154.95 -36.99,154.80 -37.64,154.64 -38.29,154.48 -38.93,154.32 -39.58,154.15 -40.23,153.99 -40.87,153.82 -41.51,153.65 -42.16,153.47 -42.80,153.29 -43.44,153.11 -44.08,152.93 -44.72,152.74 -45.36,152.55 -46.00,152.36 -46.64,152.17 -47.28,151.97 -47.91,151.77 -48.55,151.57 -49.18,151.37 -49.82,151.16 -50.45,150.95 -51.08,150.74 -51.71,150.52 -52.34,150.30 -52.97,150.08 -53.60,149.86 -54.23,149.63 -54.85,149.40 -55.48,149.17 -56.10,148.94 -56.72,148.70 -57.35,148.46 -57.97,148.22 -58.59,147.98 -59.21,147.73 -59.83,147.48 -60.44,147.23 -61.06,146.98 -61.68,146.72 -62.29,146.46 -62.90,146.20 -63.51,145.93 -64.12,145.67 -64.73,145.40 -65.34,145.12 -65.95,144.85 -66.56,144.57 -67.16,144.29 -67.76,144.01 -68.37,143.72 -68.97,143.43 -69.57,143.14 -70.17,142.85 -70.77,142.56 -71.36,142.26 -71.96,141.96 -72.55,141.66 -73.14,141.35 -73.74,141.04 -74.33,140.73 -74.91,140.42 -75.50,140.11 -76.09,139.79 -76.67,139.47 -77.26,139.15 -77.84,138.82 -78.42,138.49 -79.00,138.16 -79.58,137.83 -80.15,137.50 -80.73,137.16 -81.30,136.82 -81.88,136.48 -82.45,136.14 -83.02,135.79 -83.58,135.44 -84.15,135.09 -84.72,134.74 -85.28,134.38 -85.84,134.02 -86.40,133.66 -86.96,133.30 -87.52,132.93 -88.08,132.56 -88.63,132.19 -89.18,131.82 -89.73,131.45 -90.28,131.07 -90.83,130.69 -91.38,130.31 -91.92,129.92 -92.47,129.54 -93.01,129.15 -93.55,128.76 -94.09,128.37 -94.62,127.97 -95.16,127.57 -95.69,127.17 -96.22,126.77 -96.76,126.37 -97.28,125.96 -97.81,125.55 -98.34,125.14 -98.86,124.73 -99.38,124.31 -99.90,123.90 -100.42,123.48 -100.93,123.05 -101.45,122.63 -101.96,122.20 -102.47,121.78 -102.98,121.35 -103.49,120.91 -104.00,120.48 -104.50,120.04 -105.00,119.60 -105.50,119.16 -106.00,118.72 -106.50,118.28 -106.99,117.83 -107.48,117.38 -107.97,116.93 -108.46,116.47 -108.95,116.02 -109.43,115.56 -109.92,115.10 -110.40,114.64 -110.88,114.18 -111.35,113.71 -111.83,113.24 -112.30,112.77 -112.77,112.30 -113.24,111.83 -113.71,111.35 -114.18,110.88 -114.64,110.40 -115.10,109.92 -115.56,109.43 -116.02,108.95 -116.47,108.46 -116.93,107.97 -117.38,107.48 -117.83,106.99 -118.28,106.50 -118.72,106.00 -119.16,105.50 -119.60,105.00 -120.04,104.50 -120.48,104.00 -120.91,103.49 -121.35,102.98 -121.78,102.47 -122.20,101.96 -122.63,101.45 -123.05,100.93 -123.48,100.42 -123.90,99.90 -124.31,99.38 -124.73,98.86 -125.14,98.34 -125.55,97.81 -125.96,97.28 -126.37,96.76 -126.77,96.22 -127.17,95.69 -127.57,95.16 -127.97,94.62 -128.37,94.09 -128.76,93.55 -129.15,93.01 -129.54,92.47 -129.92,91.92 -130.31,91.38 -130.69,90.83 -131.07,90.28 -131.45,89.73 -131.82,89.18 -132.19,88.63 -132.56,88.08 -132.93,87.52 -133.30,86.96 -133.66,86.40 -134.02,85.84 -134.38,85.28 -134.74,84.72 -135.09,84.15 -135.44,83.58 -135.79,83.02 -136.14,82.45 -136.48,81.88 -136.82,81.30 -137.16,80.73 -137.50,80.15 -137.83,79.58 -138.16,79.00 -138.49,78.42 -138.82,77.84 -139.15,77.26 -139.47,76.67 -139.79,76.09 -140.11,75.50 -140.42,74.91 -140.73,74.33 -141.04,73.74 -141.35,73.14 -141.66,72.55 -141.96,71.96 -142.26,71.36 -142.56,70.77 -142.85,70.17 -143.14,69.57 -143.43,68.97 -143.72,68.37 -144.01,67.76 -144.29,67.16 -144.57,66.56 -144.85,65.95 -145.12,65.34 -145.40,64.73 -145.67,64.12 -145.93,63.51 -146.20,62.90 -146.46,62.29 -146.72,61.68 -146.98,61.06 -147.23,60.44 -147.48,59.83 -147.73,59.21 -147.98,58.59 -148.22,57.97 -148.46,57.35 -148.70,56.72 -148.94,56.10 -149.17,55.48 -149.40,54.85 -149.63,54.23 -149.86,53.60 -150.08,52.97 -150.30,52.34 -150.52,51.71 -150.74,51.08 -150.95,50.45 -151.16,49.82 -151.37,49.18 -151.57,48.55 -151.77,47.91 -151.97,47.28 -152.17,46.64 -152.36,46.00 -152.55,45.36 -152.74,44.72 -152.93,44.08 -153.11,43.44 -153.29,42.80 -153.47,42.16 -153.65,41.51 -153.82,40.87 -153.99,40.23 -154.15,39.58 -154.32,38.93 -154.48,38.29 -154.64,37.64 -154.80,36.99 -154.95,36.34 -155.10,35.69 -155.25,35.04 -155.39,34.39 -155.54,33.74 -155.68,33.09 -155.81,32.44 -155.95,31.78 -156.08,31.13 -156.21,30.48 -156.34,29.82 -156.46,29.17 -156.58,28.51 -156.70,27.86 -156.81,27.20 -156.93,26.54 -157.04,25.88 -157.14,25.23 -157.25,24.57 -157.35,23.91 -157.45,23.25 -157.54,22.59 -157.64,21.93 -157.73,21.27 -157.82,20.61 -157.90,19.95 -157.98,19.29 -158.06,18.62 -158.14,17.96 -158.21,17.30 -158.28,16.64 -158.35,15.97 -158.42,15.31 -158.48,14.65 -158.54,13.98 -158.60,13.32 -158.65,12.65 -158.70,11.99 -158.75,11.32 -158.80,10.66 -158.84,9.99 -158.88,9.33 -158.92,8.66 -158.95,8.00 -158.99,7.33 -159.02,6.66 -159.04,6.00 -159.07,5.33 -159.09,4.67 -159.10,4.00 -159.12,3.33 -159.13,2.67 -159.14,2.00 -159.15,1.33 "/>
    <edge id="e2" from="n2" to="n1" width="10.2" speed="60" shape="-159.15,0.67 -159.15,0.00 -159.15,-0.67 -159.15,-1.33 -159.14,-2.00 -159.13,-2.67 -159.12,-3.33 -159.10,-4.00 -159.09,-4.67 -159.07,-5.33 -159.04,-6.00 -159.02,-6.66 -158.99,-7.33 -158.95,-8.00 -158.92,-8.66 -158.88,-9.33 -158.84,-9.99 -158.80,-10.66 -158.75,-11.32 -158.70,-11.99 -158.65,-12.65 -158.60,-13.32 -158.54,-13.98 -158.48,-14.65 -158.42,-15.31 -158.35,-15.97 -158.28,-16.64 -158.21,-17.30 -158.14,-17.96 -158.06,-18.62 -157.98,-19.29 -157.90,-19.95 -157.82,-20.61 -157.73,-21.27 -157.64,-21.93 -157.54,-22.59 -157.45,-23.25 -157.35,-23.91 -157.25,-24.57 -157.14,-25.23 -157.04,-25.88 -156.93,-26.54 -156.81,-27.20 -156.70,-27.86 -156.58,-28.51 -156.46,-29.17 -156.34,-29.82 -156.21,-30.48 -156.08,-31.13 -155.95,-31.78 -155.81,-32.44 -155.68,-33.09 -155.54,-33.74 -155.39,-34.39 -155.25,-35.04 -155.10,-35.69 -154.95,-36.34 -154.80,-36.99 -154.64,-37.64 -154.48,-38.29 -154.32,-38.93 -154.15,-39.58 -153.99,-40.23 -153.82,-40.87 -153.65,-41.51 -153.47,-42.16 -153.29,-42.80 -153.11,-43.44 -152.93,-44.08 -152.74,-44.72 -152.55,-45.36 -152.36,-46.00 -152.17,-46.64 -151.97,-47.28 -151.77,-47.91 -151.57,-48.55 -151.37,-49.18 -151.16,-49.82 -150.95,-50.45 -150.74,-51.08 -150.52,-51.71 -150.30,-52.34 -150.08,-52.97 -149.86,-53.60 -149.63,-54.23 -149.40,-54.85 -149.17,-55.48 -148.94,-56.10 -148.70,-56.72 -148.46,-57.35 -148.22,-57.97 -147.98,-58.59 -147.73,-59.21 -147.48,-59.83 -147.23,-60.44 -146.98,-61.06 -146.72,-61.68 -146.46,-62.29 -146.20,-62.90 -145.93,-63.51 -145.67,-64.12 -145.40,-64.73 -145.12,-65.34 -144.85,-65.95 -144.57,-66.56 -144.29,-67.16 -144.01,-67.76 -143.72,-68.37 -143.43,-68.97 -143.14,-69.57 -142.85,-70.17 -142.56,-70.77 -142.26,-71.36 -141.96,-71.96 -141.66,-72.55 -141.35,-73.14 -141.04,-73.74 -140.73,-74.33 -140.42,-74.91 -140.11,-75.50 -139.79,-76.09 -139.47,-76.67 -139.15,-77.26 -138.82,-77.84 -138.49,-78.42 -138.16,-79.00 -137.83,-79.58 -137.50,-80.15 -137.16,-80.73 -136.82,-81.30 -136.48,-81.88 -136.14,-82.45 -135.79,-83.02 -135.44,-83.58 -135.09,-84.15 -134.74,-84.72 -134.38,-85.28 -134.02,-85.84 -133.66,-86.40 -133.30,-86.96 -132.93,-87.52 -132.56,-88.08 -132.19,-88.63 -131.82,-89.18 -131.45,-89.73 -131.07,-90.28 -130.69,-90.83 -130.31,-91.38 -129.92,-91.92 -129.54,-92.47 -129.15,-93.01 -128.76,-93.55 -128.37,-94.09 -127.97,-94.62 -127.57,-95.16 -127.17,-95.69 -126.77,-96.22 -126.37,-96.76 -125.96,-97.28 -125.55,-97.81 -125.14,-98.34 -124.73,-98.86 -124.31,-99.38 -123.90,-99.90 -123.48,-100.42 -123.05,-100.93 -122.63,-101.45 -122.20,-101.96 -121.78,-102.47 -121.35,-102.98 -120.91,-103.49 -120.48,-104.00 -120.04,-104.50 -119.60,-105.00 -119.16,-105.50 -118.72,-106.00 -118.28,-106.50 -117.83,-106.99 -117.38,-107.48 -116.93,-107.97 -116.47,-108.46 -116.02,-108.95 -115.56,-109.43 -115.10,-109.92 -114.64,-110.40 -114.18,-110.88 -113.71,-111.35 -113.24,-111.83 -112.77,-112.30 -112.30,-112.77 -111.83,-113.24 -111.35,-113.71 -110.88,-114.18 -110.40,-114.64 -109.92,-115.10 -109.43,-115.56 -108.95,-116.02 -108.46,-116.47 -107.97,-116.93 -107.48,-117.38 -106.99,-117.83 -106.50,-118.28 -106.00,-118.72 -105.50,-119.16 -105.00,-119.60 -104.50,-120.04 -104.00,-120.48 -103.49,-120.91 -102.98,-121.35 -102.47,-121.78 -101.96,-122.20 -101.45,-122.63 -100.93,-123.05 -100.42,-123.48 -99.90,-123.90 -99.38,-124.31 -98.86,-124.73 -98.34,-125.14 -97.81,-125.55 -97.28,-125.96 -96.76,-126.37 -96.22,-126.77 -95.69,-127.17 -95.16,-127.57 -94.62,-127.97 -94.09,-128.37 -93.55,-128.76 -93.01,-129.15 -92.47,-129.54 -91.92,-129.92 -91.38,-130.31 -90.83,-130.69 -90.28,-131.07 -89.73,-131.45 -89.18,-131.82 -88.63,-132.19 -88.08,-132.56 -87.52,-132.93 -86.96,-133.30 -86.40,-133.66 -85.84,-134.02 -85.28,-134.38 -84.72,-134.74 -84.15,-135.09 -83.58,-135.44 -83.02,-135.79 -82.45,-136.14 -81.88,-136.48 -81.30,-136.82 -80.73,-137.16 -80.15,-137.50 -79.58,-137.83 -79.00,-138.16 -78.42,-138.49 -77.84,-138.82 -77.26,-139.15 -76.67,-139.47 -76.09,-139.79 -75.50,-140.11 -74.91,-140.42 -74.33,-140.73 -73.74,-141.04 -73.14,-141.35 -72.55,-141.66 -71.96,-141.96 -71.36,-142.26 -70.77,-142.56 -70.17,-142.85 -69.57,-143.14 -68.97,-143.43 -68.37,-143.72 -67.76,-144.01 -67.16,-144.29 -66.56,-144.57 -65.95,-144.85 -65.34,-145.12 -64.73,-145.40 -64.12,-145.67 -63.51,-145.93 -62.90,-146.20 -62.29,-146.46 -61.68,-146.72 -61.06,-146.98 -60.44,-147.23 -59.83,-147.48 -59.21,-147.73 -58.59,-147.98 -57.97,-148.22 -57.35,-148.46 -56.72,-148.70 -56.10,-148.94 -55.48,-149.17 -54.85,-149.40 -54.23,-149.63 -53.60,-149.86 -52.97,-150.08 -52.34,-150.30 -51.71,-150.52 -51.08,-150.74 -50.45,-150.95 -49.82,-151.16 -49.18,-151.37 -48.55,-151.57 -47.91,-151.77 -47.28,-151.97 -46.64,-152.17 -46.00,-152.36 -45.36,-152.55 -44.72,-152.74 -44.08,-152.93 -43.44,-153.11 -42.80,-153.29 -42.16,-153.47 -41.51,-153.65 -40.87,-153.82 -40.23,-153.99 -39.58,-154.15 -38.93,-154.32 -38.29,-154.48 -37.64,-154.64 -36.99,-154.80 -36.34,-154.95 -35.69,-155.10 -35.04,-155.25 -34.39,-155.39 -33.74,-155.54 -33.09,-155.68 -32.44,-155.81 -31.78,-155.95 -31.13,-156.08 -30.48,-156.21 -29.82,-156.34 -29.17,-156.46 -28.51,-156.58 -27.86,-156.70 -27.20,-156.81 -26.54,-156.93 -25.88,-157.04 -25.23,-157.14 -24.57,-157.25 -23.91,-157.35 -23.25,-157.45 -22.59,-157.54 -21.93,-157.64 -21.27,-157.73 -20.61,-157.82 -19.95,-157.90 -19.29,-157.98 -18.62,-158.06 -17.96,-158.14 -17.30,-158.21 -16.64,-158.28 -15.97,-158.35 -15.31,-158.42 -14.65,-158.48 -13.98,-158.54 -13.32,-158.60 -12.65,-158.65 -11.99,-158.70 -11.32,-158.75 -10.66,-158.80 -9.99,-158.84 -9.33,-158.88 -8.66,-158.92 -8.00,-158.95 -7.33,-158.99 -6.66,-159.02 -6.00,-159.04 -5.33,-159.07 -4.67,-159.09 -4.00,-159.10 -3.33,-159.12 -2.67,-159.13 -2.00,-159.14 -1.33,-159.15 -0.67,-159.15 -0.00,-159.15 0.67,-159.15 1.33,-159.15 2.00,-159.14 2.67,-159.13 3.33,-159.12 4.00,-159.10 4.67,-159.09 5.33,-159.07 6.00,-159.04 6.66,-159.02 7.33,-158.99 8.00,-158.95 8.66,-158.92 9.33,-158.88 9.99,-158.84 10.66,-158.80 11.32,-158.75 11.99,-158.70 12.65,-158.65 13.32,-158.60 13.98,-158.54 14.65,-158.48 15.31,-158.42 15.97,-158.35 16.64,-158.28 17.30,-158.21 17.96,-158.14 18.62,-158.06 19.29,-157.98 19.95,-157.90 20.61,-157.82 21.27,-157.73 21.93,-157.64 22.59,-157.54 23.25,-157.45 23.91,-157.35 24.57,-157.25 25.23,-157.14 25.88,-157.04 26.54,-156.93 27.20,-156.81 27.86,-156.70 28.51,-156.58 29.17,-156.46 29.82,-156.34 30.48,-156.21 31.13,-156.08 31.78,-155.95 32.44,-155.81 33.09,-155.68 33.74,-155.54 34.39,-155.39 35.04,-155.25 35.69,-155.10 36.34,-154.95 36.99,-154.80 37.64,-154.64 38.29,-154.48 38.93,-154.32 39.58,-154.15 40.23,-153.99 40.87,-153.82 41.51,-153.65 42.16,-153.47 42.80,-153.29 43.44,-153.11 44.08,-152.93 44.72,-152.74 45.36,-152.55 46.00,-152.36 46.64,-152.17 47.28,-151.97 47.91,-151.77 48.55,-151.57 49.18,-151.37 49.82,-151.16 50.45,-150.95 51.08,-150.74 51.71,-150.52 52.34,-150.30 52.97,-150.08 53.60,-149.86 54.23,-149.63 54.85,-149.40 55.48,-149.17 56.10,-148.94 56.72,-148.70 57.35,-148.46 57.97,-148.22 58.59,-147.98 59.21,-147.73 59.83,-147.48 60.44,-147.23 61.06,-146.98 61.68,-146.72 62.29,-146.46 62.90,-146.20 63.51,-145.93 64.12,-145.67 64.73,-145.40 65.34,-145.12 65.95,-144.85 66.56,-144.57 67.16,-144.29 67.76,-144.01 68.37,-143.72 68.97,-143.43 69.57,-143.14 70.17,-142.85 70.77,-142.56 71.36,-142.26 71.96,-141.96 72.55,-141.66 73.14,-141.35 73.74,-141.04 74.33,-140.73 74.91,-140.42 75.50,-140.11 76.09,-139.79 76.67,-139.47 77.26,-139.15 77.84,-138.82 78.42,-138.49 79.00,-138.16 79.58,-137.83 80.15,-137.50 80.73,-137.16 81.30,-136.82 81.88,-136.48 82.45,-136.14 83.02,-135.79 83.58,-135.44 84.15,-135.09 84.72,-134.74 85.28,-134.38 85.84,-134.02 86.40,-133.66 86.96,-133.30 87.52,-132.93 88.08,-132.56 88.63,-132.19 89.18,-131.82 89.73,-131.45 90.28,-131.07 90.83,-130.69 91.38,-130.31 91.92,-129.92 92.47,-129.54 93.01,-129.15 93.55,-128.76 94.09,-128.37 94.62,-127.97 95.16,-127.57 95.69,-127.17 96.22,-126.77 96.76,-126.37 97.28,-125.96 97.81,-125.55 98.34,-125.14 98.86,-124.73 99.38,-124.31 99.90,-123.90 100.42,-123.48 100.93,-123.05 101.45,-122.63 101.96,-122.20 102.47,-121.78 102.98,-121.35 103.49,-120.91 104.00,-120.48 104.50,-120.04 105.00,-119.60 105.50,-119.16 106.00,-118.72 106.50,-118.28 106.99,-117.83 107.48,-117.38 107.97,-116.93 108.46,-116.47 108.95,-116.02 109.43,-115.56 109.92,-115.10 110.40,-114.64 110.88,-114.18 111.35,-113.71 111.83,-113.24 112.30,-112.77 112.77,-112.30 113.24,-111.83 113.71,-111.35 114.18,-110.88 114.64,-110.40 115.10,-109.92 115.56,-109.43 116.02,-108.95 116.47,-108.46 116.93,-107.97 117.38,-107.48 117.83,-106.99 118.28,-106.50 118.72,-106.00 119.16,-105.50 119.60,-105.00 120.04,-104.50 120.48,-104.00 120.91,-103.49 121.35,-102.98 121.78,-102.47 122.20,-101.96 122.63,-101.45 123.05,-100.93 123.48,-100.42 123.90,-99.90 124.31,-99.38 124.73,-98.86 125.14,-98.34 125.55,-97.81 125.96,-97.28 126.37,-96.76 126.77,-96.22 127.17,-95.69 127.57,-95.16 127.97,-94.62 128.37,-94.09 128.76,-93.55 129.15,-93.01 129.54,-92.47 129.92,-91.92 130.31,-91.38 130.69,-90.83 131.07,-90.28 131.45,-89.73 131.82,-89.18 132.19,-88.63 132.56,-88.08 132.93,-87.52 133.30,-86.96 133.66,-86.40 134.02,-85.84 134.38,-85.28 134.74,-84.72 135.09,-84.15 135.44,-83.58 135.79,-83.02 136.14,-82.45 136.48,-81.88 136.82,-81.30 137.16,-80.73 137.50,-80.15 137.83,-79.58 138.16,-79.00 138.49,-78.42 138.82,-77.84 139.15,-77.26 139.47,-76.67 139.79,-76.09 140.11,-75.50 140.42,-74.91 140.73,-74.33 141.04,-73.74 141.35,-73.14 141.66,-72.55 141.96,-71.96 142.26,-71.36 142.56,-70.77 142.85,-70.17 143.14,-69.57 143.43,-68.97 143.72,-68.37 144.01,-67.76 144.29,-67.16 144.57,-66.56 144.85,-65.95 145.12,-65.34 145.40,-64.73 145.67,-64.12 145.93,-63.51 146.20,-62.90 146.46,-62.29 146.72,-61.68 146.98,-61.06 147.23,-60.44 147.48,-59.83 147.73,-59.21 147.98,-58.59 148.22,-57.97 148.46,-57.35 148.70,-56.72 148.94,-56.10 149.17,-55.48 149.40,-54.85 149.63,-54.23 149.86,-53.60 150.08,-52.97 150.30,-52.34 150.52,-51.71 150.74,-51.08 150.95,-50.45 151.16,-49.82 151.37,-49.18 151.57,-48.55 151.77,-47.91 151.97,-47.28 152.17,-46.64 152.36,-46.00 152.55,-45.36 152.74,-44.72 152.93,-44.08 153.11,-43.44 153.29,-42.80 153.47,-42.16 153.65,-41.51 153.82,-40.87 153.99,-40.23 154.15,-39.58 154.32,-38.93 154.48,-38.29 154.64,-37.64 154.80,-36.99 154.95,-36.34 155.10,-35.69 155.25,-35.04 155.39,-34.39 155.54,-33.74 155.68,-33.09 155.81,-32.44 155.95,-31.78 156.08,-31.13 156.21,-30.48 156.34,-29.82 156.46,-29.17 156.58,-28.51 156.70,-27.86 156.81,-27.20 156.93,-26.54 157.04,-25.88 157.14,-25.23 157.25,-24.57 157.35,-23.91 157.45,-23.25 157.54,-22.59 157.64,-21.93 157.73,-21.27 157.82,-20.61 157.90,-19.95 157.98,-19.29 158.06,-18.62 158.14,-17.96 158.21,-17.30 158.28,-16.64 158.35,-15.97 158.42,-15.31 158.48,-14.65 158.54,-13.98 158.60,-13.32 158.65,-12.65 158.70,-11.99 158.75,-11.32 158.80,-10.66 158.84,-9.99 158.88,-9.33 158.92,-8.66 158.95,-8.00 158.99,-7.33 159.02,-6.66 159.04,-6.00 159.07,-5.33 159.09,-4.67 159.10,-4.00 159.12,-3.33 159.13,-2.67 159.14,-2.00 159.15,-1.33 159.15,-0.67"/>
</edges>
