<?xml version="1.0" encoding="UTF-8"?>

<!-- generated on 2023-10-04 18:29:45 by Eclipse SUMO netconvert Version 1.18.0
<configuration xmlns:xsi="http://www.w3.org/2001/XMLSchema-instance" xsi:noNamespaceSchemaLocation="http://sumo.dlr.de/xsd/netconvertConfiguration.xsd">

    <input>
        <node-files value="circle_5.nod.xml"/>
        <edge-files value="circle_5.edg.xml"/>
    </input>

    <output>
        <output-file value="circle_5.net.xml"/>
    </output>

</configuration>
-->

<net version="1.16" junctionCornerDetail="5" limitTurnSpeed="5.50" xmlns:xsi="http://www.w3.org/2001/XMLSchema-instance" xsi:noNamespaceSchemaLocation="http://sumo.dlr.de/xsd/net_file.xsd">

    <location netOffset="159.15,159.15" convBoundary="0.00,0.00,318.30,318.30" origBoundary="-159.15,-159.15,159.15,159.15" projParameter="!"/>

    <edge id=":n1_0" function="internal">
        <lane id=":n1_0_0" index="0" speed="60.00" length="0.34" width="10.20" shape="323.40,158.48 323.40,158.82"/>
    </edge>
    <edge id=":n2_0" function="internal">
        <lane id=":n2_0_0" index="0" speed="60.00" length="0.51" width="10.20" shape="-5.10,160.56 -5.10,160.04"/>
    </edge>

    <edge id="e1" from="n1" to="n2" priority="-1" shape="318.30,159.15 318.30,159.82 318.30,160.48 318.29,161.15 318.28,161.82 318.27,162.48 318.25,163.15 318.24,163.82 318.22,164.48 318.19,165.15 318.17,165.81 318.14,166.48 318.10,167.15 318.07,167.81 318.03,168.48 317.99,169.14 317.95,169.81 317.90,170.47 317.85,171.14 317.80,171.80 317.75,172.47 317.69,173.13 317.63,173.80 317.57,174.46 317.50,175.12 317.43,175.79 317.36,176.45 317.29,177.11 317.21,177.77 317.13,178.44 317.05,179.10 316.97,179.76 316.88,180.42 316.79,181.08 316.69,181.74 316.60,182.40 316.50,183.06 316.40,183.72 316.29,184.38 316.19,185.03 316.08,185.69 315.96,186.35 315.85,187.01 315.73,187.66 315.61,188.32 315.49,188.97 315.36,189.63 315.23,190.28 315.10,190.93 314.96,191.59 314.83,192.24 314.69,192.89 314.54,193.54 314.40,194.19 314.25,194.84 314.10,195.49 313.95,196.14 313.79,196.79 313.63,197.44 313.47,198.08 313.30,198.73 313.14,199.38 312.97,200.02 312.80,200.66 312.62,201.31 312.44,201.95 312.26,202.59 312.08,203.23 311.89,203.87 311.70,204.51 311.51,205.15 311.32,205.79 311.12,206.43 310.92,207.06 310.72,207.70 310.52,208.33 310.31,208.97 310.10,209.60 309.89,210.23 309.67,210.86 309.45,211.49 309.23,212.12 309.01,212.75 308.78,213.38 308.55,214.00 308.32,214.63 308.09,215.25 307.85,215.87 307.61,216.50 307.37,217.12 307.13,217.74 306.88,218.36 306.63,218.98 306.38,219.59 306.13,220.21 305.87,220.83 305.61,221.44 305.35,222.05 305.08,222.66 304.82,223.27 304.55,223.88 304.27,224.49 304.00,225.10 303.72,225.71 303.44,226.31 303.16,226.91 302.87,227.52 302.58,228.12 302.29,228.72 302.00,229.32 301.71,229.92 301.41,230.51 301.11,231.11 300.81,231.70 300.50,232.29 300.19,232.89 299.88,233.48 299.57,234.06 299.26,234.65 298.94,235.24 298.62,235.82 298.30,236.41 297.97,236.99 297.64,237.57 297.31,238.15 296.98,238.73 296.65,239.30 296.31,239.88 295.97,240.45 295.63,241.03 295.29,241.60 294.94,242.17 294.59,242.73 294.24,243.30 293.89,243.87 293.53,244.43 293.17,244.99 292.81,245.55 292.45,246.11 292.08,246.67 291.71,247.23 291.34,247.78 290.97,248.33 290.60,248.88 290.22,249.43 289.84,249.98 289.46,250.53 289.07,251.07 288.69,251.62 288.30,252.16 287.91,252.70 287.52,253.24 287.12,253.77 286.72,254.31 286.32,254.84 285.92,255.37 285.52,255.91 285.11,256.43 284.70,256.96 284.29,257.49 283.88,258.01 283.46,258.53 283.05,259.05 282.63,259.57 282.20,260.08 281.78,260.60 281.35,261.11 280.93,261.62 280.50,262.13 280.06,262.64 279.63,263.15 279.19,263.65 278.75,264.15 278.31,264.65 277.87,265.15 277.43,265.65 276.98,266.14 276.53,266.63 276.08,267.12 275.62,267.61 275.17,268.10 274.71,268.58 274.25,269.07 273.79,269.55 273.33,270.03 272.86,270.50 272.39,270.98 271.92,271.45 271.45,271.92 270.98,272.39 270.50,272.86 270.03,273.33 269.55,273.79 269.07,274.25 268.58,274.71 268.10,275.17 267.61,275.62 267.12,276.08 266.63,276.53 266.14,276.98 265.65,277.43 265.15,277.87 264.65,278.31 264.15,278.75 263.65,279.19 263.15,279.63 262.64,280.06 262.13,280.50 261.62,280.93 261.11,281.35 260.60,281.78 260.08,282.20 259.57,282.63 259.05,283.05 258.53,283.46 258.01,283.88 257.49,284.29 256.96,284.70 256.43,285.11 255.91,285.52 255.37,285.92 254.84,286.32 254.31,286.72 253.77,287.12 253.24,287.52 252.70,287.91 252.16,288.30 251.62,288.69 251.07,289.07 250.53,289.46 249.98,289.84 249.43,290.22 248.88,290.60 248.33,290.97 247.78,291.34 247.23,291.71 246.67,292.08 246.11,292.45 245.55,292.81 244.99,293.17 244.43,293.53 243.87,293.89 243.30,294.24 242.73,294.59 242.17,294.94 241.60,295.29 241.03,295.63 240.45,295.97 239.88,296.31 239.30,296.65 238.73,296.98 238.15,297.31 237.57,297.64 236.99,297.97 236.41,298.30 235.82,298.62 235.24,298.94 234.65,299.26 234.06,299.57 233.48,299.88 232.89,300.19 232.29,300.50 231.70,300.81 231.11,301.11 230.51,301.41 229.92,301.71 229.32,302.00 228.72,302.29 228.12,302.58 227.52,302.87 226.91,303.16 226.31,303.44 225.71,303.72 225.10,304.00 224.49,304.27 223.88,304.55 223.27,304.82 222.66,305.08 222.05,305.35 221.44,305.61 220.83,305.87 220.21,306.13 219.59,306.38 218.98,306.63 218.36,306.88 217.74,307.13 217.12,307.37 216.50,307.61 215.87,307.85 215.25,308.09 214.63,308.32 214.00,308.55 213.38,308.78 212.75,309.01 212.12,309.23 211.49,309.45 210.86,309.67 210.23,309.89 209.60,310.10 208.97,310.31 208.33,310.52 207.70,310.72 207.06,310.92 206.43,311.12 205.79,311.32 205.15,311.51 204.51,311.70 203.87,311.89 203.23,312.08 202.59,312.26 201.95,312.44 201.31,312.62 200.66,312.80 200.02,312.97 199.38,313.14 198.73,313.30 198.08,313.47 197.44,313.63 196.79,313.79 196.14,313.95 195.49,314.10 194.84,314.25 194.19,314.40 193.54,314.54 192.89,314.69 192.24,314.83 191.59,314.96 190.93,315.10 190.28,315.23 189.63,315.36 188.97,315.49 188.32,315.61 187.66,315.73 187.01,315.85 186.35,315.96 185.69,316.08 185.03,316.19 184.38,316.29 183.72,316.40 183.06,316.50 182.40,316.60 181.74,316.69 181.08,316.79 180.42,316.88 179.76,316.97 179.10,317.05 178.44,317.13 177.77,317.21 177.11,317.29 176.45,317.36 175.79,317.43 175.12,317.50 174.46,317.57 173.80,317.63 173.13,317.69 172.47,317.75 171.80,317.80 171.14,317.85 170.47,317.90 169.81,317.95 169.14,317.99 168.48,318.03 167.81,318.07 167.15,318.10 166.48,318.14 165.81,318.17 165.15,318.19 164.48,318.22 163.82,318.24 163.15,318.25 162.48,318.27 161.82,318.28 161.15,318.29 160.48,318.30 159.82,318.30 159.15,318.30 158.48,318.30 157.82,318.30 157.15,318.29 156.48,318.28 155.82,318.27 155.15,318.25 154.48,318.24 153.82,318.22 153.15,318.19 152.49,318.17 151.82,318.14 151.15,318.10 150.49,318.07 149.82,318.03 149.16,317.99 148.49,317.95 147.83,317.90 147.16,317.85 146.50,317.80 145.83,317.75 145.17,317.69 144.50,317.63 143.84,317.57 143.18,317.50 142.51,317.43 141.85,317.36 141.19,317.29 140.53,317.21 139.86,317.13 139.20,317.05 138.54,316.97 137.88,316.88 137.22,316.79 136.56,316.69 135.90,316.60 135.24,316.50 134.58,316.40 133.92,316.29 133.27,316.19 132.61,316.08 131.95,315.96 131.29,315.85 130.64,315.73 129.98,315.61 129.33,315.49 128.67,315.36 128.02,315.23 127.37,315.10 126.71,314.96 126.06,314.83 125.41,314.69 124.76,314.54 124.11,314.40 123.46,314.25 122.81,314.10 122.16,313.95 121.51,313.79 120.86,313.63 120.22,313.47 119.57,313.30 118.92,313.14 118.28,312.97 117.64,312.80 116.99,312.62 116.35,312.44 115.71,312.26 115.07,312.08 114.43,311.89 113.79,311.70 113.15,311.51 112.51,311.32 111.87,311.12 111.24,310.92 110.60,310.72 109.97,310.52 109.33,310.31 108.70,310.10 108.07,309.89 107.44,309.67 106.81,309.45 106.18,309.23 105.55,309.01 104.92,308.78 104.30,308.55 103.67,308.32 103.05,308.09 102.43,307.85 101.80,307.61 101.18,307.37 100.56,307.13 99.94,306.88 99.32,306.63 98.71,306.38 98.09,306.13 97.47,305.87 96.86,305.61 96.25,305.35 95.64,305.08 95.03,304.82 94.42,304.55 93.81,304.27 93.20,304.00 92.59,303.72 91.99,303.44 91.39,303.16 90.78,302.87 90.18,302.58 89.58,302.29 88.98,302.00 88.38,301.71 87.79,301.41 87.19,301.11 86.60,300.81 86.01,300.50 85.41,300.19 84.82,299.88 84.24,299.57 83.65,299.26 83.06,298.94 82.48,298.62 81.89,298.30 81.31,297.97 80.73,297.64 80.15,297.31 79.57,296.98 79.00,296.65 78.42,296.31 77.85,295.97 77.27,295.63 76.70,295.29 76.13,294.94 75.57,294.59 75.00,294.24 74.43,293.89 73.87,293.53 73.31,293.17 72.75,292.81 72.19,292.45 71.63,292.08 71.07,291.71 70.52,291.34 69.97,290.97 69.42,290.60 68.87,290.22 68.32,289.84 67.77,289.46 67.23,289.07 66.68,288.69 66.14,288.30 65.60,287.91 65.06,287.52 64.53,287.12 63.99,286.72 63.46,286.32 62.93,285.92 62.39,285.52 61.87,285.11 61.34,284.70 60.81,284.29 60.29,283.88 59.77,283.46 59.25,283.05 58.73,282.63 58.22,282.20 57.70,281.78 57.19,281.35 56.68,280.93 56.17,280.50 55.66,280.06 55.15,279.63 54.65,279.19 54.15,278.75 53.65,278.31 53.15,277.87 52.65,277.43 52.16,276.98 51.67,276.53 51.18,276.08 50.69,275.62 50.20,275.17 49.72,274.71 49.23,274.25 48.75,273.79 48.27,273.33 47.80,272.86 47.32,272.39 46.85,271.92 46.38,271.45 45.91,270.98 45.44,270.50 44.97,270.03 44.51,269.55 44.05,269.07 43.59,268.58 43.13,268.10 42.68,267.61 42.22,267.12 41.77,266.63 41.32,266.14 40.87,265.65 40.43,265.15 39.99,264.65 39.55,264.15 39.11,263.65 38.67,263.15 38.24,262.64 37.80,262.13 37.37,261.62 36.95,261.11 36.52,260.60 36.10,260.08 35.67,259.57 35.25,259.05 34.84,258.53 34.42,258.01 34.01,257.49 33.60,256.96 33.19,256.43 32.78,255.91 32.38,255.37 31.98,254.84 31.58,254.31 31.18,253.77 30.78,253.24 30.39,252.70 30.00,252.16 29.61,251.62 29.23,251.07 28.84,250.53 28.46,249.98 28.08,249.43 27.70,248.88 27.33,248.33 26.96,247.78 26.59,247.23 26.22,246.67 25.85,246.11 25.49,245.55 25.13,244.99 24.77,244.43 24.41,243.87 24.06,243.30 23.71,242.73 23.36,242.17 23.01,241.60 22.67,241.03 22.33,240.45 21.99,239.88 21.65,239.30 21.32,238.73 20.99,238.15 20.66,237.57 20.33,236.99 20.00,236.41 19.68,235.82 19.36,235.24 19.04,234.65 18.73,234.06 18.42,233.48 18.11,232.89 17.80,232.29 17.49,231.70 17.19,231.11 16.89,230.51 16.59,229.92 16.30,229.32 16.01,228.72 15.72,228.12 15.43,227.52 15.14,226.91 14.86,226.31 14.58,225.71 14.30,225.10 14.03,224.49 13.75,223.88 13.48,223.27 13.22,222.66 12.95,222.05 12.69,221.44 12.43,220.83 12.17,220.21 11.92,219.59 11.67,218.98 11.42,218.36 11.17,217.74 10.93,217.12 10.69,216.50 10.45,215.87 10.21,215.25 9.98,214.63 9.75,214.00 9.52,213.38 9.29,212.75 9.07,212.12 8.85,211.49 8.63,210.86 8.41,210.23 8.20,209.60 7.99,208.97 7.78,208.33 7.58,207.70 7.38,207.06 7.18,206.43 6.98,205.79 6.79,205.15 6.60,204.51 6.41,203.87 6.22,203.23 6.04,202.59 5.86,201.95 5.68,201.31 5.50,200.66 5.33,200.02 5.16,199.38 5.00,198.73 4.83,198.08 4.67,197.44 4.51,196.79 4.35,196.14 4.20,195.49 4.05,194.84 3.90,194.19 3.76,193.54 3.61,192.89 3.47,192.24 3.34,191.59 3.20,190.93 3.07,190.28 2.94,189.63 2.81,188.97 2.69,188.32 2.57,187.66 2.45,187.01 2.34,186.35 2.22,185.69 2.11,185.03 2.01,184.38 1.90,183.72 1.80,183.06 1.70,182.40 1.61,181.74 1.51,181.08 1.42,180.42 1.33,179.76 1.25,179.10 1.17,178.44 1.09,177.77 1.01,177.11 0.94,176.45 0.87,175.79 0.80,175.12 0.73,174.46 0.67,173.80 0.61,173.13 0.55,172.47 0.50,171.80 0.45,171.14 0.40,170.47 0.35,169.81 0.31,169.14 0.27,168.48 0.23,167.81 0.20,167.15 0.16,166.48 0.13,165.81 0.11,165.15 0.08,164.48 0.06,163.82 0.05,163.15 0.03,162.48 0.02,161.82 0.01,161.15 0.00,160.48">
        <lane id="e1_0" index="0" speed="60.00" length="514.96" width="10.20" shape="323.40,158.82 323.40,159.82 323.40,160.52 323.39,161.23 323.38,161.90 323.37,162.60 323.35,163.26 323.34,163.94 323.32,164.67 323.29,165.34 323.27,166.00 323.23,166.75 323.19,167.42 323.16,168.08 323.12,168.79 323.08,169.45 323.04,170.15 322.99,170.85 322.94,171.52 322.89,172.18 322.83,172.89 322.77,173.59 322.71,174.26 322.65,174.96 322.57,175.65 322.50,176.32 322.43,176.99 322.36,177.69 322.27,178.38 322.19,179.05 322.11,179.71 322.03,180.41 321.93,181.11 321.84,181.81 321.74,182.47 321.65,183.13 321.54,183.82 321.44,184.52 321.33,185.19 321.23,185.84 321.10,186.57 320.98,187.23 320.87,187.89 320.75,188.58 320.63,189.24 320.50,189.93 320.36,190.62 320.23,191.28 320.10,191.96 319.96,192.62 319.82,193.28 319.67,194.00 319.52,194.65 319.38,195.30 319.22,195.99 319.07,196.64 318.91,197.32 318.74,198.01 318.58,198.67 318.41,199.34 318.24,199.98 318.08,200.64 317.90,201.33 317.72,202.00 317.53,202.68 317.35,203.33 317.17,203.97 316.98,204.65 316.78,205.32 316.59,205.96 316.40,206.60 316.20,207.28 315.98,207.96 315.78,208.59 315.58,209.23 315.37,209.90 315.15,210.57 314.94,211.21 314.72,211.88 314.48,212.54 314.26,213.17 314.04,213.80 313.81,214.47 313.57,215.14 313.34,215.76 313.11,216.39 312.86,217.06 312.61,217.70 312.37,218.33 312.13,218.96 311.87,219.61 311.61,220.27 311.35,220.90 311.10,221.51 310.85,222.15 310.57,222.82 310.30,223.44 310.03,224.08 309.76,224.69 309.50,225.30 309.20,225.98 308.92,226.59 308.65,227.20 308.35,227.85 308.06,228.47 307.77,229.08 307.47,229.72 307.17,230.34 306.88,230.94 306.59,231.54 306.28,232.19 305.96,232.81 305.66,233.41 305.34,234.04 305.02,234.65 304.71,235.25 304.39,235.87 304.08,236.45 303.76,237.05 303.41,237.69 303.09,238.27 302.76,238.89 302.40,239.51 302.07,240.09 301.74,240.67 301.40,241.27 301.06,241.87 300.70,242.48 300.36,243.05 300.02,243.63 299.65,244.24 299.28,244.86 298.93,245.42 298.59,245.97 298.21,246.58 297.82,247.19 297.46,247.75 297.10,248.31 296.72,248.89 296.34,249.48 295.95,250.06 295.57,250.63 295.20,251.18 294.81,251.75 294.42,252.33 294.04,252.88 293.63,253.47 293.24,254.01 292.86,254.56 292.43,255.15 292.04,255.69 291.62,256.27 291.20,256.82 290.80,257.36 290.39,257.91 290.00,258.42 289.57,259.01 289.13,259.57 288.73,260.08 288.31,260.63 287.87,261.19 287.45,261.71 287.04,262.23 286.56,262.82 286.13,263.33 285.71,263.85 285.27,264.37 284.85,264.88 284.38,265.44 283.94,265.95 283.49,266.48 283.02,267.02 282.58,267.52 282.14,268.02 281.70,268.52 281.22,269.06 280.74,269.59 280.29,270.08 279.82,270.59 279.36,271.08 278.89,271.59 278.41,272.09 277.95,272.58 277.47,273.08 276.97,273.60 276.49,274.09 276.02,274.57 275.53,275.06 275.06,275.53 274.57,276.02 274.09,276.49 273.60,276.97 273.08,277.47 272.58,277.95 272.09,278.41 271.59,278.89 271.08,279.36 270.59,279.82 270.08,280.29 269.59,280.74 269.06,281.22 268.52,281.70 268.02,282.14 267.52,282.58 267.02,283.02 266.48,283.49 265.95,283.94 265.44,284.38 264.88,284.85 264.37,285.27 263.85,285.71 263.33,286.13 262.82,286.56 262.23,287.04 261.71,287.45 261.19,287.87 260.63,288.31 260.08,288.73 259.57,289.13 259.01,289.57 258.42,290.00 257.91,290.39 257.36,290.80 256.82,291.20 256.27,291.62 255.69,292.04 255.15,292.43 254.56,292.86 254.01,293.24 253.47,293.63 252.88,294.04 252.33,294.42 251.75,294.81 251.18,295.20 250.63,295.57 250.06,295.95 249.48,296.34 248.89,296.72 248.31,297.10 247.75,297.46 247.19,297.82 246.58,298.21 245.97,298.59 245.42,298.93 244.86,299.28 244.24,299.65 243.63,300.02 243.05,300.36 242.48,300.70 241.87,301.06 241.27,301.40 240.67,301.74 240.09,302.07 239.51,302.40 238.89,302.76 238.27,303.09 237.69,303.41 237.05,303.76 236.45,304.08 235.87,304.39 235.25,304.71 234.65,305.02 234.04,305.34 233.41,305.66 232.81,305.96 232.19,306.28 231.54,306.59 230.94,306.88 230.34,307.17 229.72,307.47 229.08,307.77 228.47,308.06 227.85,308.35 227.20,308.65 226.59,308.92 225.98,309.20 225.30,309.50 224.69,309.76 224.08,310.03 223.44,310.30 222.82,310.57 222.15,310.85 221.51,311.10 220.90,311.35 220.27,311.61 219.61,311.87 218.96,312.13 218.33,312.37 217.70,312.61 217.06,312.86 216.39,313.11 215.76,313.34 215.14,313.57 214.47,313.81 213.80,314.04 213.17,314.26 212.54,314.48 211.88,314.72 211.21,314.94 210.57,315.15 209.90,315.37 209.23,315.58 208.59,315.78 207.96,315.98 207.28,316.20 206.60,316.40 205.96,316.59 205.32,316.78 204.65,316.98 203.97,317.17 203.33,317.35 202.68,317.53 202.00,317.72 201.33,317.90 200.64,318.08 199.98,318.24 199.34,318.41 198.67,318.58 198.01,318.74 197.32,318.91 196.64,319.07 195.99,319.22 195.30,319.38 194.65,319.52 194.00,319.67 193.28,319.82 192.62,319.96 191.96,320.10 191.28,320.23 190.62,320.36 189.93,320.50 189.24,320.63 188.58,320.75 187.89,320.87 187.23,320.98 186.57,321.10 185.84,321.23 185.19,321.33 184.52,321.44 183.82,321.54 183.13,321.65 182.47,321.74 181.81,321.84 181.11,321.93 180.41,322.03 179.71,322.11 179.05,322.19 178.38,322.27 177.69,322.36 176.99,322.43 176.32,322.50 175.65,322.57 174.96,322.65 174.26,322.71 173.59,322.77 172.89,322.83 172.18,322.89 171.52,322.94 170.85,322.99 170.15,323.04 169.45,323.08 168.79,323.12 168.08,323.16 167.42,323.19 166.75,323.23 166.00,323.27 165.34,323.29 164.67,323.32 163.94,323.34 163.26,323.35 162.60,323.37 161.90,323.38 161.23,323.39 160.52,323.40 159.82,323.40 159.15,323.40 158.48,323.40 157.78,323.40 157.07,323.39 156.40,323.38 155.70,323.37 155.04,323.35 154.36,323.34 153.63,323.32 152.96,323.29 152.30,323.27 151.55,323.23 150.88,323.19 150.22,323.16 149.51,323.12 148.85,323.08 148.15,323.04 147.45,322.99 146.78,322.94 146.12,322.89 145.41,322.83 144.71,322.77 144.04,322.71 143.34,322.65 142.65,322.57 141.98,322.50 141.31,322.43 140.61,322.36 139.92,322.27 139.25,322.19 138.59,322.11 137.89,322.03 137.19,321.93 136.49,321.84 135.83,321.74 135.17,321.65 134.48,321.54 133.78,321.44 133.11,321.33 132.46,321.23 131.73,321.10 131.07,320.98 130.41,320.87 129.72,320.75 129.06,320.63 128.37,320.50 127.68,320.36 127.02,320.23 126.34,320.10 125.68,319.96 125.02,319.82 124.30,319.67 123.65,319.52 123.00,319.38 122.31,319.22 121.66,319.07 120.98,318.91 120.29,318.74 119.63,318.58 118.96,318.41 118.32,318.24 117.66,318.08 116.97,317.90 116.30,317.72 115.62,317.53 114.97,317.35 114.33,317.17 113.65,316.98 112.98,316.78 112.34,316.59 111.70,316.40 111.02,316.20 110.34,315.98 109.71,315.78 109.07,315.58 108.40,315.37 107.73,315.15 107.09,314.94 106.42,314.72 105.76,314.48 105.13,314.26 104.50,314.04 103.83,313.81 103.16,313.57 102.54,313.34 101.91,313.11 101.24,312.86 100.60,312.61 99.97,312.37 99.34,312.13 98.69,311.87 98.03,311.61 97.40,311.35 96.79,311.10 96.15,310.85 95.48,310.57 94.86,310.30 94.22,310.03 93.61,309.76 93.00,309.50 92.32,309.20 91.71,308.92 91.10,308.65 90.45,308.35 89.83,308.06 89.22,307.77 88.58,307.47 87.96,307.17 87.36,306.88 86.76,306.59 86.11,306.28 85.49,305.96 84.89,305.66 84.26,305.34 83.65,305.02 83.05,304.71 82.43,304.39 81.85,304.08 81.25,303.76 80.61,303.41 80.03,303.09 79.41,302.76 78.79,302.40 78.21,302.07 77.63,301.74 77.03,301.40 76.43,301.06 75.82,300.70 75.25,300.36 74.67,300.02 74.06,299.65 73.44,299.28 72.88,298.93 72.33,298.59 71.72,298.21 71.11,297.82 70.55,297.46 69.99,297.10 69.41,296.72 68.82,296.34 68.24,295.95 67.67,295.57 67.12,295.20 66.55,294.81 65.97,294.42 65.42,294.04 64.83,293.63 64.29,293.24 63.74,292.86 63.15,292.43 62.61,292.04 62.03,291.62 61.48,291.20 60.94,290.80 60.39,290.39 59.88,290.00 59.29,289.57 58.73,289.13 58.22,288.73 57.67,288.31 57.11,287.87 56.59,287.45 56.07,287.04 55.48,286.56 54.97,286.13 54.45,285.71 53.93,285.27 53.42,284.85 52.86,284.38 52.35,283.94 51.82,283.49 51.28,283.02 50.78,282.58 50.28,282.14 49.78,281.70 49.24,281.22 48.71,280.74 48.22,280.29 47.71,279.82 47.22,279.36 46.71,278.89 46.21,278.41 45.72,277.95 45.22,277.47 44.70,276.97 44.21,276.49 43.73,276.02 43.24,275.53 42.77,275.06 42.28,274.57 41.81,274.09 41.33,273.60 40.83,273.08 40.35,272.58 39.89,272.09 39.41,271.59 38.94,271.08 38.48,270.59 38.01,270.08 37.56,269.59 37.08,269.06 36.60,268.52 36.16,268.02 35.72,267.52 35.28,267.02 34.81,266.48 34.36,265.95 33.92,265.44 33.45,264.88 33.03,264.37 32.59,263.85 32.17,263.33 31.74,262.82 31.26,262.23 30.85,261.71 30.43,261.19 29.99,260.63 29.57,260.08 29.17,259.57 28.73,259.01 28.30,258.42 27.91,257.91 27.50,257.36 27.10,256.82 26.68,256.27 26.26,255.69 25.87,255.15 25.44,254.56 25.06,254.01 24.67,253.47 24.26,252.88 23.88,252.33 23.49,251.75 23.10,251.18 22.73,250.63 22.35,250.06 21.96,249.48 21.58,248.89 21.20,248.31 20.84,247.75 20.48,247.19 20.09,246.58 19.71,245.97 19.37,245.42 19.02,244.86 18.65,244.24 18.28,243.63 17.94,243.05 17.60,242.48 17.24,241.87 16.90,241.27 16.56,240.67 16.23,240.09 15.90,239.51 15.54,238.89 15.21,238.27 14.89,237.69 14.54,237.05 14.22,236.45 13.91,235.87 13.59,235.25 13.28,234.65 12.96,234.04 12.64,233.41 12.34,232.81 12.02,232.19 11.71,231.54 11.42,230.94 11.13,230.34 10.83,229.72 10.53,229.08 10.24,228.47 9.95,227.85 9.65,227.20 9.38,226.59 9.10,225.98 8.80,225.30 8.54,224.69 8.27,224.08 8.00,223.44 7.73,222.82 7.45,222.15 7.20,221.51 6.95,220.90 6.69,220.27 6.43,219.61 6.17,218.96 5.93,218.33 5.69,217.70 5.44,217.06 5.19,216.39 4.96,215.76 4.73,215.14 4.49,214.47 4.26,213.80 4.04,213.17 3.82,212.54 3.58,211.88 3.36,211.21 3.15,210.57 2.93,209.90 2.72,209.23 2.52,208.59 2.32,207.96 2.10,207.28 1.90,206.60 1.71,205.96 1.52,205.32 1.32,204.65 1.13,203.97 0.95,203.33 0.77,202.68 0.58,202.00 0.40,201.33 0.22,200.64 0.06,199.98 -0.11,199.34 -0.28,198.67 -0.44,198.01 -0.61,197.32 -0.77,196.64 -0.92,195.99 -1.08,195.30 -1.22,194.65 -1.37,194.00 -1.52,193.28 -1.66,192.62 -1.80,191.96 -1.93,191.28 -2.06,190.62 -2.20,189.93 -2.33,189.24 -2.45,188.58 -2.57,187.89 -2.68,187.23 -2.80,186.57 -2.93,185.84 -3.03,185.19 -3.14,184.52 -3.24,183.82 -3.35,183.13 -3.44,182.47 -3.54,181.81 -3.63,181.11 -3.73,180.41 -3.81,179.71 -3.89,179.05 -3.97,178.38 -4.06,177.69 -4.13,176.99 -4.20,176.32 -4.27,175.65 -4.35,174.96 -4.41,174.26 -4.47,173.59 -4.53,172.89 -4.59,172.18 -4.64,171.52 -4.69,170.85 -4.74,170.15 -4.78,169.45 -4.82,168.79 -4.86,168.08 -4.89,167.42 -4.93,166.75 -4.97,166.00 -4.99,165.34 -5.02,164.67 -5.04,163.94 -5.05,163.26 -5.07,162.60 -5.08,161.90 -5.09,161.23 -5.10,160.56"/>
    </edge>