
<nodes>
    <node id="n1" x="159.15" y="0.00" />
    <node id="n2" x="-159.15" y="0.67" />
</nodes>
